/*--------------------------------*- C++ -*----------------------------------*\
| =========                 |                                                 |
| \\      /  F ield         | OpenFOAM: The Open Source CFD Toolbox           |
|  \\    /   O peration     | Version:  5                                     |
|   \\  /    A nd           | Web:      www.OpenFOAM.org                      |
|    \\/     M anipulation  |                                                 |
\*---------------------------------------------------------------------------*/
FoamFile
{
    version     2.0;
    format      ascii;
    class       dictionary;
    location    "system";
    object      controlDict;
}
// * * * * * * * * * * * * * * * * * * * * * * * * * * * * * * * * * * * * * //

libs            ("libOpenFOAM.so" "libforces.so");

application     icoFoam;

startFrom       startTime;

startTime       0;

stopAt          endTime;

endTime         150;

deltaT          0.01;

writeControl    timeStep;

writeInterval   100;

purgeWrite      0;

writeFormat     ascii;

writePrecision  9;

writeCompression compressed;

timeFormat      general;

timePrecision   9;

runTimeModifiable true;

functions
{
     #include "forceCoeffs"
}


// ************************************************************************* //
