/*--------------------------------*- C++ -*----------------------------------*\
| =========                 |                                                 |
| \\      /  F ield         | OpenFOAM: The Open Source CFD Toolbox           |
|  \\    /   O peration     | Version:  5.x                                   |
|   \\  /    A nd           | Web:      www.OpenFOAM.org                      |
|    \\/     M anipulation  |                                                 |
\*---------------------------------------------------------------------------*/
FoamFile
{
    version     2.0;
    format      ascii;
    class       polyBoundaryMesh;
    location    "constant/polyMesh";
    object      boundary;
}
// * * * * * * * * * * * * * * * * * * * * * * * * * * * * * * * * * * * * * //

3
(
    walls
    {
        type            wall;
        nFaces          60;
        startFace       760;
    }
    mov_wall
    {
        type            wall;
        nFaces          20;
        startFace       820;
    }
    empty
    {
        type            empty;
        nFaces          800;
        startFace       840;
    }
)

// ************************************************************************* //
